@<TRIPOS>MOLECULE
4N70_L_PyMOL.pdb
56 59 1 0 0
SMALL
NO_CHARGES


@<TRIPOS>ATOM
      1 C1        -18.9280   37.0040   -4.8710 C.3       1 2HX    0.0000
      2 C2        -18.3960   35.7790   -4.1200 C.3       1 2HX    0.0000
      3 N3        -16.9570   35.9070   -3.7820 N.pl3     1 2HX    0.0000
      4 C4        -16.0240   36.2020   -4.8740 C.3       1 2HX    0.0000
      5 C5        -16.4900   37.4920   -5.5700 C.3       1 2HX    0.0000
      6 C6        -17.9850   37.3370   -6.0680 C.3       1 2HX    0.0000
      7 C7        -16.5040   35.1370   -2.7190 C.ar      1 2HX    0.0000
      8 C8        -15.5390   34.1490   -2.9500 C.ar      1 2HX    0.0000
      9 C9        -15.0920   33.3670   -1.8910 C.ar      1 2HX    0.0000
     10 N10       -15.5810   33.4920   -0.6480 N.ar      1 2HX    0.0000
     11 C11       -16.5070   34.4520   -0.4270 C.ar      1 2HX    0.0000
     12 C12       -17.0230   35.2730   -1.4350 C.ar      1 2HX    0.0000
     13 N13       -17.9840   36.2680   -1.2130 N.am      1 2HX    0.0000
     14 C14       -20.3760   36.7320   -5.2990 C.3       1 2HX    0.0000
     15 C15       -18.3790   36.7390    0.0190 C.2       1 2HX    0.0000
     16 C16       -19.3030   37.9030   -0.0040 C.ar      1 2HX    0.0000
     17 O17       -18.0220   36.3280    1.1060 O.2       1 2HX    0.0000
     18 C18       -19.7720   38.4960    1.2040 C.ar      1 2HX    0.0000
     19 C19       -20.5960   39.6200    1.0390 C.ar      1 2HX    0.0000
     20 C20       -20.9000   40.0940   -0.2680 C.ar      1 2HX    0.0000
     21 C21       -20.3980   39.4380   -1.3920 C.ar      1 2HX    0.0000
     22 N22       -19.5950   38.3340   -1.2670 N.ar      1 2HX    0.0000
     23 C23       -20.7370   39.8740   -2.7570 C.ar      1 2HX    0.0000
     24 N25       -15.6420   37.8590   -6.7170 N.4       1 2HX    0.0000
     25 C26       -22.1080   40.0160   -3.1920 C.ar      1 2HX    0.0000
     26 C27       -22.4820   40.4490   -4.5010 C.ar      1 2HX    0.0000
     27 C28       -21.4930   40.8040   -5.4680 C.ar      1 2HX    0.0000
     28 C29       -20.2390   40.5610   -4.9410 C.ar      1 2HX    0.0000
     29 C30       -19.7390   40.2170   -3.7000 C.ar      1 2HX    0.0000
     30 O33       -18.3500   38.5910   -6.6960 O.3       1 2HX    0.0000
     31 F24       -21.7040   41.1730   -0.4340 F         1 2HX    0.0000
     32 F31       -18.4530   40.0890   -3.4400 F         1 2HX    0.0000
     33 F32       -23.0650   39.6880   -2.2890 F         1 2HX    0.0000
     34 H1        -18.9264   37.8527   -4.1870 H         1 2HX    0.0000
     35 H22       -18.9635   35.6601   -3.1970 H         1 2HX    0.0000
     36 H23       -18.5374   34.8937   -4.7400 H         1 2HX    0.0000
     37 H42       -16.0200   35.3785   -5.5881 H         1 2HX    0.0000
     38 H43       -15.0210   36.3438   -4.4716 H         1 2HX    0.0000
     39 H5        -16.4538   38.3044   -4.8442 H         1 2HX    0.0000
     40 H6        -18.0391   36.5351   -6.8043 H         1 2HX    0.0000
     41 H8        -15.1448   33.9956   -3.9437 H         1 2HX    0.0000
     42 H9        -14.3228   32.6318   -2.0758 H         1 2HX    0.0000
     43 H11       -16.8674   34.5924    0.5814 H         1 2HX    0.0000
     44 H13       -18.4245   36.6744   -2.0259 H         1 2HX    0.0000
     45 H18       -19.5117   38.1079    2.1777 H         1 2HX    0.0000
     46 H19       -20.9995   40.1253    1.9040 H         1 2HX    0.0000
     47 H27       -23.5280   40.5087   -4.7631 H         1 2HX    0.0000
     48 H28       -21.6930   41.1990   -6.4531 H         1 2HX    0.0000
     49 H29       -19.4587   40.6656   -5.6803 H         1 2HX    0.0000
     50 H141      -20.7657   37.5975   -5.8349 H         1 2HX    0.0000
     51 H142      -20.4040   35.8587   -5.9506 H         1 2HX    0.0000
     52 H143      -20.9871   36.5461   -4.4158 H         1 2HX    0.0000
     53 H33       -19.2544   38.5390   -7.0137 H         1 2HX    0.0000
     54 H252      -15.6949   37.1354   -7.4197 H         1 2HX    0.0000
     55 H253      -15.9645   38.7325   -7.1083 H         1 2HX    0.0000
     56 H251      -14.6853   37.9606   -6.4096 H         1 2HX    0.0000
@<TRIPOS>BOND
     1    1    2 1
     2    1    6 1
     3    1   14 1
     4    2    3 1
     5    3    4 1
     6    3    7 1
     7    4    5 1
     8    5    6 1
     9    5   24 1
    10    6   30 1
    11    7    8 ar
    12    7   12 ar
    13    8    9 ar
    14    9   10 ar
    15   10   11 ar
    16   11   12 ar
    17   12   13 1
    18   13   15 am
    19   15   16 1
    20   15   17 2
    21   16   18 ar
    22   16   22 ar
    23   18   19 ar
    24   19   20 ar
    25   20   21 ar
    26   20   31 1
    27   21   22 ar
    28   21   23 1
    29   23   25 ar
    30   23   29 ar
    31   25   26 ar
    32   25   33 1
    33   26   27 ar
    34   27   28 ar
    35   28   29 ar
    36   29   32 1
    37   34    1 1
    38   35    2 1
    39   36    2 1
    40   37    4 1
    41   38    4 1
    42   39    5 1
    43   40    6 1
    44   41    8 1
    45   42    9 1
    46   43   11 1
    47   44   13 1
    48   45   18 1
    49   46   19 1
    50   47   26 1
    51   48   27 1
    52   49   28 1
    53   50   14 1
    54   51   14 1
    55   52   14 1
    56   53   30 1
    57   54   24 1
    58   55   24 1
    59   56   24 1
@<TRIPOS>SUBSTRUCTURE
     1 2HX     1 RESIDUE           4 A     2HX     0 ROOT
