4N70_L_PyMOL.pdb
     RDKit          3D

 56 59  0  0  0  0  0  0  0  0999 V2000
  -18.9280   37.0040   -4.8710 C   0  0  1  0  0  0  0  0  0  0  0  0
  -18.3960   35.7790   -4.1200 C   0  0  0  0  0  0  0  0  0  0  0  0
  -16.9570   35.9070   -3.7820 N   0  0  0  0  0  0  0  0  0  0  0  0
  -16.0240   36.2020   -4.8740 C   0  0  0  0  0  0  0  0  0  0  0  0
  -16.4900   37.4920   -5.5700 C   0  0  2  0  0  0  0  0  0  0  0  0
  -17.9850   37.3370   -6.0680 C   0  0  2  0  0  0  0  0  0  0  0  0
  -16.5040   35.1370   -2.7190 C   0  0  0  0  0  0  0  0  0  0  0  0
  -15.5390   34.1490   -2.9500 C   0  0  0  0  0  0  0  0  0  0  0  0
  -15.0920   33.3670   -1.8910 C   0  0  0  0  0  0  0  0  0  0  0  0
  -15.5810   33.4920   -0.6480 N   0  0  0  0  0  0  0  0  0  0  0  0
  -16.5070   34.4520   -0.4270 C   0  0  0  0  0  0  0  0  0  0  0  0
  -17.0230   35.2730   -1.4350 C   0  0  0  0  0  0  0  0  0  0  0  0
  -17.9840   36.2680   -1.2130 N   0  0  0  0  0  0  0  0  0  0  0  0
  -20.3760   36.7320   -5.2990 C   0  0  0  0  0  0  0  0  0  0  0  0
  -18.3790   36.7390    0.0190 C   0  0  0  0  0  0  0  0  0  0  0  0
  -19.3030   37.9030   -0.0040 C   0  0  0  0  0  0  0  0  0  0  0  0
  -18.0220   36.3280    1.1060 O   0  0  0  0  0  0  0  0  0  0  0  0
  -19.7720   38.4960    1.2040 C   0  0  0  0  0  0  0  0  0  0  0  0
  -20.5960   39.6200    1.0390 C   0  0  0  0  0  0  0  0  0  0  0  0
  -20.9000   40.0940   -0.2680 C   0  0  0  0  0  0  0  0  0  0  0  0
  -20.3980   39.4380   -1.3920 C   0  0  0  0  0  0  0  0  0  0  0  0
  -19.5950   38.3340   -1.2670 N   0  0  0  0  0  0  0  0  0  0  0  0
  -20.7370   39.8740   -2.7570 C   0  0  0  0  0  0  0  0  0  0  0  0
  -15.6420   37.8590   -6.7170 N   0  0  0  0  0  0  0  0  0  0  0  0
  -22.1080   40.0160   -3.1920 C   0  0  0  0  0  0  0  0  0  0  0  0
  -22.4820   40.4490   -4.5010 C   0  0  0  0  0  0  0  0  0  0  0  0
  -21.4930   40.8040   -5.4680 C   0  0  0  0  0  0  0  0  0  0  0  0
  -20.2390   40.5610   -4.9410 C   0  0  0  0  0  0  0  0  0  0  0  0
  -19.7390   40.2170   -3.7000 C   0  0  0  0  0  0  0  0  0  0  0  0
  -18.3500   38.5910   -6.6960 O   0  0  0  0  0  0  0  0  0  0  0  0
  -21.7040   41.1730   -0.4340 F   0  0  0  0  0  0  0  0  0  0  0  0
  -18.4530   40.0890   -3.4400 F   0  0  0  0  0  0  0  0  0  0  0  0
  -23.0650   39.6880   -2.2890 F   0  0  0  0  0  0  0  0  0  0  0  0
  -18.9264   37.8527   -4.1870 H   0  0  0  0  0  0  0  0  0  0  0  0
  -18.9635   35.6601   -3.1970 H   0  0  0  0  0  0  0  0  0  0  0  0
  -18.5374   34.8937   -4.7400 H   0  0  0  0  0  0  0  0  0  0  0  0
  -16.0200   35.3785   -5.5881 H   0  0  0  0  0  0  0  0  0  0  0  0
  -15.0210   36.3438   -4.4716 H   0  0  0  0  0  0  0  0  0  0  0  0
  -16.4538   38.3044   -4.8442 H   0  0  0  0  0  0  0  0  0  0  0  0
  -18.0391   36.5351   -6.8043 H   0  0  0  0  0  0  0  0  0  0  0  0
  -15.1448   33.9956   -3.9437 H   0  0  0  0  0  0  0  0  0  0  0  0
  -14.3228   32.6318   -2.0758 H   0  0  0  0  0  0  0  0  0  0  0  0
  -16.8674   34.5924    0.5814 H   0  0  0  0  0  0  0  0  0  0  0  0
  -18.4245   36.6744   -2.0259 H   0  0  0  0  0  0  0  0  0  0  0  0
  -19.5117   38.1079    2.1777 H   0  0  0  0  0  0  0  0  0  0  0  0
  -20.9995   40.1253    1.9040 H   0  0  0  0  0  0  0  0  0  0  0  0
  -23.5280   40.5087   -4.7631 H   0  0  0  0  0  0  0  0  0  0  0  0
  -21.6930   41.1990   -6.4531 H   0  0  0  0  0  0  0  0  0  0  0  0
  -19.4587   40.6656   -5.6803 H   0  0  0  0  0  0  0  0  0  0  0  0
  -20.7657   37.5975   -5.8349 H   0  0  0  0  0  0  0  0  0  0  0  0
  -20.4040   35.8587   -5.9506 H   0  0  0  0  0  0  0  0  0  0  0  0
  -20.9871   36.5461   -4.4158 H   0  0  0  0  0  0  0  0  0  0  0  0
  -19.2544   38.5390   -7.0137 H   0  0  0  0  0  0  0  0  0  0  0  0
  -15.6949   37.1354   -7.4197 H   0  0  0  0  0  0  0  0  0  0  0  0
  -15.9645   38.7325   -7.1083 H   0  0  0  0  0  0  0  0  0  0  0  0
  -14.6853   37.9606   -6.4096 H   0  0  0  0  0  0  0  0  0  0  0  0
  1  2  1  0
  1  6  1  0
  1 14  1  0
  2  3  1  0
  3  4  1  0
  3  7  1  0
  4  5  1  0
  5  6  1  0
  5 24  1  0
  6 30  1  0
  7  8  2  0
  7 12  1  0
  8  9  1  0
  9 10  2  0
 10 11  1  0
 11 12  2  0
 12 13  1  0
 13 15  1  0
 15 16  1  0
 15 17  2  0
 16 18  2  0
 16 22  1  0
 18 19  1  0
 19 20  2  0
 20 21  1  0
 20 31  1  0
 21 22  2  0
 21 23  1  0
 23 25  2  0
 23 29  1  0
 25 26  1  0
 25 33  1  0
 26 27  2  0
 27 28  1  0
 28 29  2  0
 29 32  1  0
  1 34  1  1
 35  2  1  0
 36  2  1  0
 37  4  1  0
 38  4  1  0
  5 39  1  1
  6 40  1  6
 41  8  1  0
 42  9  1  0
 43 11  1  0
 44 13  1  0
 45 18  1  0
 46 19  1  0
 47 26  1  0
 48 27  1  0
 49 28  1  0
 50 14  1  0
 51 14  1  0
 52 14  1  0
 53 30  1  0
 54 24  1  0
 55 24  1  0
 56 24  1  0
M  CHG  1  24   1
M  END
