5DWR_L_PyMOL.pdb
     RDKit          3D

 56 59  0  0  0  0  0  0  0  0999 V2000
  -15.5920   37.7010   -6.7430 N   0  0  0  0  0  0  0  0  0  0  0  0
  -20.0900   35.6390   -6.0810 C   0  0  0  0  0  0  0  0  0  0  0  0
  -17.7870   36.3700    1.2310 O   0  0  0  0  0  0  0  0  0  0  0  0
  -18.8810   36.2500   -5.3850 C   0  0  2  0  0  0  0  0  0  0  0  0
  -15.5670   33.2880   -0.5850 N   0  0  0  0  0  0  0  0  0  0  0  0
  -17.8410   36.7260   -6.3930 C   0  0  0  0  0  0  0  0  0  0  0  0
  -18.0630   35.9850   -1.0080 N   0  0  0  0  0  0  0  0  0  0  0  0
  -16.5800   37.3160   -5.7330 C   0  0  1  0  0  0  0  0  0  0  0  0
  -19.7200   38.0550   -1.2170 N   0  0  0  0  0  0  0  0  0  0  0  0
  -16.0010   36.2520   -4.7980 C   0  0  0  0  0  0  0  0  0  0  0  0
  -17.0310   35.8840   -3.7300 C   0  0  1  0  0  0  0  0  0  0  0  0
  -18.2500   35.2600   -4.4110 C   0  0  0  0  0  0  0  0  0  0  0  0
  -16.4910   35.0120   -2.6040 C   0  0  0  0  0  0  0  0  0  0  0  0
  -15.4890   34.0760   -2.8410 C   0  0  0  0  0  0  0  0  0  0  0  0
  -15.0650   33.2540   -1.8170 C   0  0  0  0  0  0  0  0  0  0  0  0
  -16.5230   34.1880   -0.3520 C   0  0  0  0  0  0  0  0  0  0  0  0
  -17.0250   35.0770   -1.3100 C   0  0  0  0  0  0  0  0  0  0  0  0
  -18.3310   36.6200    0.1560 C   0  0  0  0  0  0  0  0  0  0  0  0
  -19.3320   37.7310    0.0270 C   0  0  0  0  0  0  0  0  0  0  0  0
  -19.7230   38.4480    1.1530 C   0  0  0  0  0  0  0  0  0  0  0  0
  -20.5030   39.5780    0.9710 C   0  0  0  0  0  0  0  0  0  0  0  0
  -20.8770   39.9320   -0.3030 C   0  0  0  0  0  0  0  0  0  0  0  0
  -20.4790   39.1470   -1.3860 C   0  0  0  0  0  0  0  0  0  0  0  0
  -20.8480   39.4760   -2.7950 C   0  0  0  0  0  0  0  0  0  0  0  0
  -22.1510   39.7790   -3.1750 C   0  0  0  0  0  0  0  0  0  0  0  0
  -22.5120   40.1470   -4.4470 C   0  0  0  0  0  0  0  0  0  0  0  0
  -21.5250   40.2200   -5.4170 C   0  0  0  0  0  0  0  0  0  0  0  0
  -20.2110   39.9100   -5.1090 C   0  0  0  0  0  0  0  0  0  0  0  0
  -19.9120   39.5440   -3.8170 C   0  0  0  0  0  0  0  0  0  0  0  0
  -21.6140   41.0490   -0.4860 F   0  0  0  0  0  0  0  0  0  0  0  0
  -23.1120   39.6950   -2.2290 F   0  0  0  0  0  0  0  0  0  0  0  0
  -18.6340   39.2060   -3.5210 F   0  0  0  0  0  0  0  0  0  0  0  0
  -19.2330   37.1120   -4.8240 H   0  0  0  0  0  0  0  0  0  0  0  0
  -16.8260   38.2140   -5.1690 H   0  0  0  0  0  0  0  0  0  0  0  0
  -17.3910   36.8240   -3.3170 H   0  0  0  0  0  0  0  0  0  0  0  0
  -20.5180   36.2990   -6.8340 H   0  0  0  0  0  0  0  0  0  0  0  0
  -19.8230   34.7110   -6.5850 H   0  0  0  0  0  0  0  0  0  0  0  0
  -20.8820   35.3950   -5.3750 H   0  0  0  0  0  0  0  0  0  0  0  0
  -17.5740   35.8920   -7.0400 H   0  0  0  0  0  0  0  0  0  0  0  0
  -18.2850   37.4630   -7.0610 H   0  0  0  0  0  0  0  0  0  0  0  0
  -15.1120   36.9170   -7.1730 H   0  0  0  0  0  0  0  0  0  0  0  0
  -15.9610   38.3220   -7.4540 H   0  0  0  0  0  0  0  0  0  0  0  0
  -15.7210   35.3770   -5.3810 H   0  0  0  0  0  0  0  0  0  0  0  0
  -15.0740   36.5810   -4.3270 H   0  0  0  0  0  0  0  0  0  0  0  0
  -18.9850   34.9410   -3.6740 H   0  0  0  0  0  0  0  0  0  0  0  0
  -17.9620   34.3570   -4.9470 H   0  0  0  0  0  0  0  0  0  0  0  0
  -15.0320   33.9500   -3.8210 H   0  0  0  0  0  0  0  0  0  0  0  0
  -14.2450   32.5560   -1.9640 H   0  0  0  0  0  0  0  0  0  0  0  0
  -16.9090   34.1600    0.6650 H   0  0  0  0  0  0  0  0  0  0  0  0
  -18.7330   36.1030   -1.7600 H   0  0  0  0  0  0  0  0  0  0  0  0
  -19.4460   38.1380    2.1590 H   0  0  0  0  0  0  0  0  0  0  0  0
  -20.7890   40.1990    1.8160 H   0  0  0  0  0  0  0  0  0  0  0  0
  -23.5490   40.3710   -4.6910 H   0  0  0  0  0  0  0  0  0  0  0  0
  -21.7810   40.5340   -6.4280 H   0  0  0  0  0  0  0  0  0  0  0  0
  -19.4370   39.9600   -5.8730 H   0  0  0  0  0  0  0  0  0  0  0  0
  -14.8829   38.2277   -6.2532 H   0  0  0  0  0  0  0  0  0  0  0  0
  1 41  1  0
  1 42  1  0
  1  8  1  0
  2 36  1  0
  2 37  1  0
  2 38  1  0
  2  4  1  0
  3 18  2  0
  4  6  1  0
  4 12  1  0
  4 33  1  1
  5 15  2  0
  5 16  1  0
  6  8  1  0
  6 39  1  0
  6 40  1  0
  7 50  1  0
  7 17  1  0
  7 18  1  0
  8 10  1  0
  8 34  1  1
  9 19  2  0
  9 23  1  0
 10 43  1  0
 10 44  1  0
 10 11  1  0
 11 12  1  0
 11 35  1  1
 11 13  1  0
 12 45  1  0
 12 46  1  0
 13 14  2  0
 13 17  1  0
 14 47  1  0
 14 15  1  0
 15 48  1  0
 16 49  1  0
 16 17  2  0
 18 19  1  0
 19 20  1  0
 20 21  2  0
 20 51  1  0
 21 22  1  0
 21 52  1  0
 22 23  2  0
 22 30  1  0
 23 24  1  0
 24 25  2  0
 24 29  1  0
 25 26  1  0
 25 31  1  0
 26 27  2  0
 26 53  1  0
 27 28  1  0
 27 54  1  0
 28 29  2  0
 28 55  1  0
 29 32  1  0
 56  1  1  0
M  CHG  1   1   1
M  END
